/*--------------------------------*- C++ -*----------------------------------*\
| =========                 |                                                 |
| \\      /  F ield         | OpenFOAM: The Open Source CFD Toolbox           |
|  \\    /   O peration     | Version:  2.2.0                                 |
|   \\  /    A nd           | Web:      www.OpenFOAM.org                      |
|    \\/     M anipulation  |                                                 |
\*---------------------------------------------------------------------------*/
FoamFile
{
    version     2.0;
    format      ascii;
    class       dictionary;
    location    "system";
    object      fvSchemes;
}
// * * * * * * * * * * * * * * * * * * * * * * * * * * * * * * * * * * * * * //

ddtSchemes
{
    default         steadyState;
}

gradSchemes
{
    default         Gauss linear; /// linear when orthogonality is < 60Gauss linear;cellLimited Gauss linear 1.0;//
}

divSchemes
{
    default         bounded Gauss upwind;//none;
    div(phi,C_ox)      bounded Gauss upwind;
    div(phi,C_red)      bounded Gauss upwind;
}

laplacianSchemes
{
    default         none;
    laplacian(D_ox,C_ox) Gauss linear corrected; //Gauss linear limited 1;//// corrected when orthogonality is < 60
    laplacian(D_red,C_red) Gauss linear corrected; //Gauss linear limited 1;//// corrected when orthogonality is < 60
    laplacian(keff,fi) Gauss linear corrected;
}

interpolationSchemes
{
    default         linear;
}

snGradSchemes
{
    default         corrected;//limited 0.333;//corrected; corrected when orthogonality is < 60
}

fluxRequired
{
    default         yes;
    C_ox;
    C_red;
}


// ************************************************************************* //
